# OC6 input file, prepared by MF5to6 on 8/21/2017 at 16:37:39.

BEGIN Options
  HEAD FILEOUT  subwt_mf6_subwt_mf2005.hds
  HEAD PRINT_FORMAT  COLUMNS 10  WIDTH 11  DIGITS 4  GENERAL             
END Options

BEGIN PERIOD 1
  PRINT BUDGET ALL
  SAVE HEAD ALL
END PERIOD

BEGIN PERIOD 2
  PRINT BUDGET LAST
  SAVE HEAD ALL
END PERIOD
