# NPF6 input file, prepared by MF5to6 on 8/21/2017 at 16:37:39.

BEGIN Options
  PERCHED
  VARIABLECV  DEWATERED
END Options

BEGIN GRIDDATA
  Icelltype LAYERED
    CONSTANT  1
    CONSTANT  0
    CONSTANT  0
    CONSTANT  0
  K  LAYERED
    CONSTANT    4.00000000    
    CONSTANT    4.00000000    
    CONSTANT   0.100000000E-01
    CONSTANT    4.00000000    
  K33  LAYERED
    CONSTANT   0.400000000    
    CONSTANT   0.400000000    
    CONSTANT   0.100000000E-01
    CONSTANT   0.400000000    
END GRIDDATA
