# IC6 input file, prepared by MF5to6 on 8/21/2017 at 16:37:39.

BEGIN Options
END Options

BEGIN GRIDDATA
  STRT LAYERED
    CONSTANT    100.0000    
    CONSTANT    100.0000    
    CONSTANT    100.0000    
    CONSTANT    100.0000    
END GRIDDATA
