# OBS6 input file, prepared by MF5to6 on 8/21/2017 at 16:37:39.
BEGIN Options
  PRINT_INPUT
  DIGITS  7
END Options
