BEGIN Options
  LIST       mf6.lst
END Options

BEGIN Packages
  DIS6       mf6.dis6
  IC6        mf6.ic6
  NPF6       mf6.npf6
  STO6       mf6.sto6
  OC6        mf6.oc6
  WEL6       mf6.wel6
  IBC6       mf6.ibc
END Packages

