# Name file for MODFLOW-2005, generated by Flopy version 3.2.6.
#xul:0; yul:1; rotation:0; proj4_str:+init=EPSG:4326; units:meters; lenuni:2; length_multiplier:1.0 ;start_datetime:1-1-1970
LIST               2  sub_ex01.list
DIS               11  sub_ex01.dis 
BAS6              13  sub_ex01.bas 
LPF               15  sub_ex01.lpf 
PCG               27  sub_ex01.pcg 
OC                14  sub_ex01.oc 
SUB               32  sub_ex01.sub 
DATA(BINARY)      51  sub_ex01.hds REPLACE
DATA(BINARY)      95  sub_ex01.total_comp.hds REPLACE
