# DIS package for  MODFLOW-2005, generated by Flopy.
         1         1         3         1         4         2
  0
CONSTANT    1.000000E+00                           #delr                          
CONSTANT    1.000000E+00                           #delc                          
CONSTANT    5.000000E+00                           #model_top                     
CONSTANT    0.000000E+00                           #botm layer 1                  
   1000.000000           100  1.050000  TR 
