# BAS6 package for  MODFLOW-2005, generated by Flopy.
 FREE
INTERNAL               1     (3I10) -1 #ibound layer 1                
        -1         1        -1
        -999.99
CONSTANT    6.000000E+00                           #strt layer 1                  
