BEGIN OPTIONS
END OPTIONS

BEGIN TIMING
  TDIS6 simulation.tdis
END TIMING

BEGIN MODELS
  #modeltype      namefile      modelname
         GWF6      flow.nam          GWF_1
         GWT transport.nam          GWT_1
END MODELS

BEGIN EXCHANGES
  GWF-GWT flow-transport.exg GWF_1 GWT_1
END EXCHANGES

BEGIN SOLUTIONGROUP 1
  MXITER 1
  IMS6      flow.ims GWF_1
  IMS6 transport.ims GWT_1
END SOLUTIONGROUP
