BEGIN OPTIONS
END OPTIONS

BEGIN PACKAGES
  DISU          transport.disu
  BAS           transport.bas
  ADV           transport.adv
  STO           transport.sto
  OC            transport.oc
  obs8          transport.obs
END PACKAGES

