begin options
  SAVE_FLOWS
end options
#
begin period 1
  POROSITY
    constant 0.1
end period

