# Basic package file for MODFLOW-USG, generated by Flopy.
begin options
  cinact -1.e30
end options
begin basdata
strt
internal         1           (5G13.0)         1 STRT(K=1)
            0            0            0            0            0
            0            0            0            0            0
            0            0            0            0            0
            0            0            0           1.            0
            0            0            0            0            0
            0            0            0            0            0
            0            0            0            0            0
            0            0            0            0            0
            0            0            0            0            0
            0            0            0            0            0
            0            0            0            0            0
            0            0            0            0            0
            0            0            0            0            0
            0            0            0            0            0
            0            0            0            0            0
            0            0            0            0            0
            0            0            0            0            0
            0            0            0            0            0
            0            0            0            0            0
            0            0            0            0            0
            0            0            0            0            0
            0            0            0            0            0
            0            0            0            0            0
            0            0            0            0            0
            0
end basdata