BEGIN OPTIONS
  CONCENTRATION FILEOUT transport.ucn
  BUDGET FILEOUT transport.cbc
END OPTIONS

BEGIN PERIOD 1
  PRINT BUDGET ALL
  SAVE BUDGET ALL
  PRINT CONCENTRATION ALL
  SAVE CONCENTRATION ALL
END PERIOD
