BEGIN Options
  LIST       mf6.lst
END Options

BEGIN Packages
  DIS6       mf6.dis6
  IC6        mf6.ic6
  NPF6       mf6.npf6
  STO6       mf6.sto6
  OC6        mf6.oc6
  CHD6       mf6.ib.ibound.chd6  'CHD-FROM-IBOUND' 
  IBC6       mf6.ibc
END Packages

