begin options
  digits 20
  print_input
end options

begin Continuous FILEOUT mf6.ibc.csv
  comp  compaction        1
  tcomp total-compaction  1
  gwf   ibc               1
  thick thickness         1
  ibn09 delay-head        1    9
  ibn19 delay-head        1   19
  ibn01 delay-head        1    1
end Continuous
