# CHD6 input file, prepared by MF5to6 on 11/9/2017 at 9:38:10.

BEGIN Options
  PRINT_INPUT
  PRINT_FLOWS
END Options

BEGIN Dimensions
  MAXBOUND  2
END Dimensions

BEGIN PERIOD 1
  1  1  1    0.0000000
  1  1  3    0.0000000
END PERIOD
