BEGIN OPTIONS
 BOUNDNAMES
 STORAGECOEFFICIENT
 #AUX ADDITIONAL_GEOSTATIC_STRESS
 INTERBED_STRESS_OFFSET
 #USE_BULK_DENSITY
 CONSTANT_THICKNESS
 #GEO_STRESS_OFFSET
 OBS6 FILEIN mf6.ibc.obs
END OPTIONS

BEGIN DIMENSIONS
  NIBCCELLS 1 
END DIMENSIONS

BEGIN GRIDDATA
    SGS LAYERED
        CONSTANT 0.0
    SGM LAYERED
        CONSTANT 0.0
END GRIDDATA

BEGIN PACKAGEDATA
#ibcno      cellid  cdelay  pcs0 bt_frac  rnb ssv_cc sse_cr void    kv  h0 boundnames
     1   1   1   2   delay   1.0     1.0  1.0  100.0    1.0 0.82 0.025   1 dsystm0
END PACKAGEDATA
