# STO6 input file, prepared by MF5to6 on 11/9/2017 at 9:38:10.

BEGIN Options
  STORAGECOEFFICIENT
  DEV_OLDSTORAGEFORMULATION
END Options

BEGIN GRIDDATA
  ICONVERT LAYERED
    CONSTANT  0
  SS LAYERED
    CONSTANT   0.10000000E-03
  SY LAYERED
    CONSTANT    0.0000000    
END GRIDDATA
