# OC6 input file, prepared by MF5to6 on 11/9/2017 at 9:38:10.

BEGIN Options
  HEAD FILEOUT  mf6.hds
  HEAD PRINT_FORMAT  COLUMNS 15  WIDTH 7  DIGITS 2  FIXED               
END Options

BEGIN PERIOD 1
  PRINT BUDGET ALL
  SAVE HEAD ALL
END PERIOD
