# OBS6 input file, prepared by MF5to6 on 11/9/2017 at 9:38:10.
BEGIN Options
  PRINT_INPUT
  DIGITS  7
END Options
