# Basic package file for MODFLOW-USG, generated by Flopy.
begin options
end options

BEGIN GRIDDATA
strt
  open/close arrays/strt.dat FACTOR  1  IPRN
END GRIDDATA

