#option block.  Note -- no comments allowed on auxiliary line
begin options
  PRINT_INPUT
  PRINT_FLOWS
  SAVE_FLOWS
end options

begin dimensions
  MAXBOUND 31
end dimensions

#        k         i         j      flux     var1 var2 var3
begin period 1
  open/close arrays/wells.dat
end period
