BEGIN OPTIONS
  TIME_UNITS DAYS
END OPTIONS

BEGIN DIMENSIONS
  NPER 1
END DIMENSIONS

BEGIN PERIODDATA
 #perlen nstp  tsmult
    0.2 500  1.000000
END PERIODDATA
