# Basic package file for MODFLOW-USG, generated by Flopy.
begin options
  cinact -1.e30
end options

begin basdata
strt
  constant 35.
end basdata
