BEGIN OPTIONS
  CONCENTRATION FILEOUT transport.output.ucn
  BUDGET FILEOUT transport.output.cbc
END OPTIONS

BEGIN PERIOD 1
  PRINT BUDGET ALL
  SAVE BUDGET ALL
  SAVE CONCENTRATION ALL
END PERIOD

