BEGIN OPTIONS
END OPTIONS

BEGIN PACKAGES
  DISU          transport.disu
  BAS           transport.bas
  ADV           transport.adv
  DSP           transport.dsp
  STO           transport.sto
  OC            transport.oc
END PACKAGES

