# TDIS6 input file, prepared by MF5to6 on 8/21/2017 at 16:37:39.

BEGIN Options
  TIME_UNITS DAYS
END Options

BEGIN Dimensions
  NPER 3
END Dimensions

BEGIN PERIODDATA
    1.0000000               1    1.0000000      Items: PERLEN NSTP TSMULT
    21915.000              60    1.0000000      Items: PERLEN NSTP TSMULT
    21915.000              60    1.0000000      Items: PERLEN NSTP TSMULT
END PERIODDATA
