BEGIN OPTIONS
 BOUNDNAMES
 #STORAGECOEFFICIENT
 #AUX ADDITIONAL_GEOSTATIC_STRESS
 INTERBED_STRESS_OFFSET
 #USE_BULK_DENSITY
 CELL_FRACTION
 GEO_STRESS_OFFSET
END OPTIONS

BEGIN DIMENSIONS
  NIBCCELLS 840 
END DIMENSIONS

BEGIN GRIDDATA
    SGS LAYERED
        CONSTANT 2.0
        CONSTANT 2.0
        CONSTANT 2.0
        CONSTANT 2.0
    SGM LAYERED
        CONSTANT 1.7
        CONSTANT 1.7
        CONSTANT 1.7
        CONSTANT 1.7
    #BULK_DENSITY
    #    CONSTANT 1.45
    #    CONSTANT 1.45
    #    CONSTANT 1.45
    #    CONSTANT 1.45
END GRIDDATA

BEGIN PACKAGEDATA
   OPEN/CLOSE subwt_mf6.sub.data      
END PACKAGEDATA

BEGIN PERIOD 1
    SIG0 LAYERED
        CONSTANT 0.
        CONSTANT 0.
        CONSTANT 0.
        CONSTANT 0.
END PERIOD 1