# WEL6 input file, prepared by MF5to6 on 8/21/2017 at 16:37:39.

BEGIN Options
  PRINT_INPUT
  PRINT_FLOWS
END Options

BEGIN Dimensions
  MAXBOUND  20
END Dimensions

BEGIN PERIOD 1
  1  1  8    2200.0000
  1  2  5    2200.0000
  1  2  8    2200.0000
  1  2  12    2200.0000
  1  3  4    2200.0000
  1  4  12    2200.0000
  1  5  3    2200.0000
  1  5  13    2200.0000
  1  6  14    2200.0000
  1  7  2    2200.0000
  1  14  2    2200.0000
  1  14  14    2200.0000
  1  16  3    2200.0000
  1  16  13    2200.0000
  1  17  13    2200.0000
  1  18  4    2200.0000
  1  18  12    2200.0000
  1  19  7    2200.0000
END PERIOD

BEGIN PERIOD 2
  1  1  8    2200.0000
  1  2  5    2200.0000
  1  2  8    2200.0000
  1  2  12    2200.0000
  1  3  4    2200.0000
  1  4  12    2200.0000
  1  5  3    2200.0000
  1  5  13    2200.0000
  1  6  14    2200.0000
  1  7  2    2200.0000
  1  14  2    2200.0000
  1  14  14    2200.0000
  1  16  3    2200.0000
  1  16  13    2200.0000
  1  17  13    2200.0000
  1  18  4    2200.0000
  1  18  12    2200.0000
  1  19  7    2200.0000
  2  9  10   -72000.000
  4  12  7   -72000.000
END PERIOD

BEGIN PERIOD 3
  1  1  8    2200.0000
  1  2  5    2200.0000
  1  2  8    2200.0000
  1  2  12    2200.0000
  1  3  4    2200.0000
  1  4  12    2200.0000
  1  5  3    2200.0000
  1  5  13    2200.0000
  1  6  14    2200.0000
  1  7  2    2200.0000
  1  14  2    2200.0000
  1  14  14    2200.0000
  1  16  3    2200.0000
  1  16  13    2200.0000
  1  17  13    2200.0000
  1  18  4    2200.0000
  1  18  12    2200.0000
  1  19  7    2200.0000
END PERIOD
