# DIS6 input file, prepared by MF5to6 on 8/21/2017 at 16:37:39.

BEGIN Options
  LENGTH_UNITS  METERS
END Options

BEGIN Dimensions
  NLAY  4
  NROW  20
  NCOL  15
END Dimensions

BEGIN GRIDDATA
  DELR
    CONSTANT    2000.00000        DELR
  DELC
    CONSTANT    2000.00000        DELC
  TOP LAYERED
    CONSTANT    150.0000    
  BOTM LAYERED
    CONSTANT    50.00000    
    CONSTANT   -100.0000    
    CONSTANT   -150.0000    
    CONSTANT   -350.0000    
  IDOMAIN LAYERED
    INTERNAL  FACTOR  1  IPRN  5    Idomain layer 1
    0    0    0    0    0    1    1    1    1    1    0    0    0    0    0
    0    0    0    0    1    1    1    1    1    1    1    1    0    0    0
    0    0    0    1    1    1    1    1    1    1    1    1    0    0    0
    0    0    0    1    1    1    1    1    1    1    1    1    0    0    0
    0    0    1    1    1    1    1    1    1    1    1    1    1    0    0
    0    0    1    1    1    1    1    1    1    1    1    1    1    1    0
    0    1    1    1    1    1    1    1    1    1    1    1    1    1    0
    0    1    1    1    1    1    1    1    1    1    1    1    1    1    0
    1    1    1    1    1    1    1    1    1    1    1    1    1    1    1
    1    1    1    1    1    1    1    1    1    1    1    1    1    1    1
    1    1    1    1    1    1    1    1    1    1    1    1    1    1    1
    0    1    1    1    1    1    1    1    1    1    1    1    1    1    1
    0    1    1    1    1    1    1    1    1    1    1    1    1    1    0
    0    1    1    1    1    1    1    1    1    1    1    1    1    1    0
    0    0    1    1    1    1    1    1    1    1    1    1    1    0    0
    0    0    1    1    1    1    1    1    1    1    1    1    1    0    0
    0    0    0    1    1    1    1    1    1    1    1    1    1    0    0
    0    0    0    1    1    1    1    1    1    1    1    1    0    0    0
    0    0    0    0    0    0    1    1    1    1    0    0    0    0    0
    0    0    0    0    0    0    0    1    1    0    0    0    0    0    0
    INTERNAL  FACTOR  1  IPRN  5    Idomain layer 2
    0    0    0    0    0    1    1    1    1    1    0    0    0    0    0
    0    0    0    0    1    1    1    1    1    1    1    1    0    0    0
    0    0    0    1    1    1    1    1    1    1    1    1    0    0    0
    0    0    0    1    1    1    1    1    1    1    1    1    0    0    0
    0    0    1    1    1    1    1    1    1    1    1    1    1    0    0
    0    0    1    1    1    1    1    1    1    1    1    1    1    1    0
    0    1    1    1    1    1    1    1    1    1    1    1    1    1    0
    0    1    1    1    1    1    1    1    1    1    1    1    1    1    0
    1    1    1    1    1    1    1    1    1    1    1    1    1    1    1
    1    1    1    1    1    1    1    1    1    1    1    1    1    1    1
    1    1    1    1    1    1    1    1    1    1    1    1    1    1    1
    0    1    1    1    1    1    1    1    1    1    1    1    1    1    1
    0    1    1    1    1    1    1    1    1    1    1    1    1    1    0
    0    1    1    1    1    1    1    1    1    1    1    1    1    1    0
    0    0    1    1    1    1    1    1    1    1    1    1    1    0    0
    0    0    1    1    1    1    1    1    1    1    1    1    1    0    0
    0    0    0    1    1    1    1    1    1    1    1    1    1    0    0
    0    0    0    1    1    1    1    1    1    1    1    1    0    0    0
    0    0    0    0    0    0    1    1    1    1    0    0    0    0    0
    0    0    0    0    0    0    0    1    1    0    0    0    0    0    0
    INTERNAL  FACTOR  1  IPRN  5    Idomain layer 3
    0    0    0    0    0    1    1    1    1    1    0    0    0    0    0
    0    0    0    0    1    1    1    1    1    1    1    1    0    0    0
    0    0    0    1    1    1    1    1    1    1    1    1    0    0    0
    0    0    0    1    1    1    1    1    1    1    1    1    0    0    0
    0    0    1    1    1    1    1    1    1    1    1    1    1    0    0
    0    0    1    1    1    1    1    1    1    1    1    1    1    1    0
    0    1    1    1    1    1    1    1    1    1    1    1    1    1    0
    0    1    1    1    1    1    1    1    1    1    1    1    1    1    0
    1    1    1    1    1    1    1    1    1    1    1    1    1    1    1
    1    1    1    1    1    1    1    1    1    1    1    1    1    1    1
    1    1    1    1    1    1    1    1    1    1    1    1    1    1    1
    0    1    1    1    1    1    1    1    1    1    1    1    1    1    1
    0    1    1    1    1    1    1    1    1    1    1    1    1    1    0
    0    1    1    1    1    1    1    1    1    1    1    1    1    1    0
    0    0    1    1    1    1    1    1    1    1    1    1    1    0    0
    0    0    1    1    1    1    1    1    1    1    1    1    1    0    0
    0    0    0    1    1    1    1    1    1    1    1    1    1    0    0
    0    0    0    1    1    1    1    1    1    1    1    1    0    0    0
    0    0    0    0    0    0    1    1    1    1    0    0    0    0    0
    0    0    0    0    0    0    0    1    1    0    0    0    0    0    0
    INTERNAL  FACTOR  1  IPRN  5    Idomain layer 4
    0    0    0    0    0    1    1    1    1    1    0    0    0    0    0
    0    0    0    0    1    1    1    1    1    1    1    1    0    0    0
    0    0    0    1    1    1    1    1    1    1    1    1    0    0    0
    0    0    0    1    1    1    1    1    1    1    1    1    0    0    0
    0    0    1    1    1    1    1    1    1    1    1    1    1    0    0
    0    0    1    1    1    1    1    1    1    1    1    1    1    1    0
    0    1    1    1    1    1    1    1    1    1    1    1    1    1    0
    0    1    1    1    1    1    1    1    1    1    1    1    1    1    0
    1    1    1    1    1    1    1    1    1    1    1    1    1    1    1
    1    1    1    1    1    1    1    1    1    1    1    1    1    1    1
    1    1    1    1    1    1    1    1    1    1    1    1    1    1    1
    0    1    1    1    1    1    1    1    1    1    1    1    1    1    1
    0    1    1    1    1    1    1    1    1    1    1    1    1    1    0
    0    1    1    1    1    1    1    1    1    1    1    1    1    1    0
    0    0    1    1    1    1    1    1    1    1    1    1    1    0    0
    0    0    1    1    1    1    1    1    1    1    1    1    1    0    0
    0    0    0    1    1    1    1    1    1    1    1    1    1    0    0
    0    0    0    1    1    1    1    1    1    1    1    1    0    0    0
    0    0    0    0    0    0    1    1    1    1    0    0    0    0    0
    0    0    0    0    0    0    0    1    1    0    0    0    0    0    0
END GRIDDATA
