# CHD6 input file, prepared by MF5to6 on 8/21/2017 at 16:37:39.

BEGIN Options
  PRINT_INPUT
  PRINT_FLOWS
END Options

BEGIN Dimensions
  MAXBOUND  8
END Dimensions

BEGIN PERIOD 1
  1  20  8    100.00000
  1  20  9    100.00000
  2  20  8    100.00000
  2  20  9    100.00000
  3  20  8    100.00000
  3  20  9    100.00000
  4  20  8    100.00000
  4  20  9    100.00000
END PERIOD
