
begin options
  PRINT_INPUT
  PRINT_FLOWS
  SAVE_FLOWS
  NEWTON
#  AUXILIARY testaux
end options

begin dimensions
  NEXG 1
end dimensions

  # nodem1 nodem2  ifdc Icelltype Iflowtype FlenGW Fskin1 Fskin2
begin exchangedata
#
        20      1    0         1         3    49.0    1.0   1.0
end exchangedata

