
begin options
  PRINT_INPUT
  PRINT_FLOWS
  SAVE_FLOWS
  NEWTON
#  AUXILIARY testaux
end options

begin dimensions
  NEXG 9
end dimensions

  # nodem1 nodem2  ifdc Icelltype Iflowtype FlenGW Fskin1 Fskin2
begin exchangedata
#
        37      2    0         1         3    33.3    1.0   1.0
        38      2    0         1         3    33.3    1.0   1.0
        39      2    0         1         3    33.3    1.0   1.0
        40      3    0         1         3    33.3    1.0   1.0
        41      3    0         1         3    33.3    1.0   1.0
        42      3    0         1         3    33.3    1.0   1.0
        43      4    0         1         3    33.3    1.0   1.0
        44      4    0         1         3    33.3    1.0   1.0
        45      4    0         1         3    33.3    1.0   1.0
end exchangedata

