
begin options
  PRINT_INPUT
  PRINT_FLOWS
  SAVE_FLOWS
  AUXILIARY testaux
  GHOST_NODES
end options

begin dimensions
  NEXG 36
end dimensions

  # nodem1 nodem2  ihc  cl1   cl2    fahl  testaux
begin exchangedata
#
#       left side
        16      1    1  50. 16.67 3333.33   100.99
        16     10    1  50. 16.67 3333.33   100.99
        16     19    1  50. 16.67 3333.33   100.99
        23     28    1  50. 16.67 3333.33   100.99
        23     37    1  50. 16.67 3333.33   100.99
        23     46    1  50. 16.67 3333.33   100.99
        30     55    1  50. 16.67 3333.33   100.99
        30     64    1  50. 16.67 3333.33   100.99
        30     73    1  50. 16.67 3333.33   100.99
#
#       right side
        20      9    1  50. 16.67 3333.33   100.99
        20     18    1  50. 16.67 3333.33   100.99
        20     27    1  50. 16.67 3333.33   100.99
        27     36    1  50. 16.67 3333.33   100.99
        27     45    1  50. 16.67 3333.33   100.99
        27     54    1  50. 16.67 3333.33   100.99
        34     63    1  50. 16.67 3333.33   100.99
        34     72    1  50. 16.67 3333.33   100.99
        34     81    1  50. 16.67 3333.33   100.99
#
#       back
        10      1    1  50. 17.67 3333.33   100.99
        10      2    1  50. 17.67 3333.33   100.99
        10      3    1  50. 17.67 3333.33   100.99
        11      4    1  50. 17.67 3333.33   100.99
        11      5    1  50. 17.67 3333.33   100.99
        11      6    1  50. 17.67 3333.33   100.99
        12      7    1  50. 17.67 3333.33   100.99
        12      8    1  50. 17.67 3333.33   100.99
        12      9    1  50. 17.67 3333.33   100.99
#
#       front
        38     73    1  50. 17.67 3333.33   100.99
        38     74    1  50. 17.67 3333.33   100.99
        38     75    1  50. 17.67 3333.33   100.99
        39     76    1  50. 17.67 3333.33   100.99
        39     77    1  50. 17.67 3333.33   100.99
        39     78    1  50. 17.67 3333.33   100.99
        40     79    1  50. 17.67 3333.33   100.99
        40     80    1  50. 17.67 3333.33   100.99
        40     81    1  50. 17.67 3333.33   100.99
end exchangedata

BEGIN OPTIONS
  #I2KN
  #IMPLICIT
  PRINT_INPUT
  PRINT_FLOWS
END OPTIONS

BEGIN DIMENSIONS
  NUMGNC 36
  NUMALPHAJ 1
END DIMENSIONS

BEGIN GNCDATA
#    noden  nodem nodesj          alphasj
#       left side
        16      1      9   0.333333333333
        16     10      0   0.333333333333
        16     19     23   0.333333333333
        23     28     16   0.333333333333
        23     37      0   0.333333333333
        23     46     30   0.333333333333
        30     55     23   0.333333333333
        30     64      0   0.333333333333
        30     73     37   0.333333333333
#
#       right side
        20      9     13   0.333333333333
        20     18      0   0.333333333333
        20     27     27   0.333333333333
        27     36     20   0.333333333333
        27     45      0   0.333333333333
        27     54     34   0.333333333333
        34     63     27   0.333333333333
        34     72      0   0.333333333333
        34     81     41   0.333333333333
#
#       back
        10      1      9   0.333333333333
        10      2      0   0.333333333333
        10      3     11   0.333333333333
        11      4     10   0.333333333333
        11      5      0   0.333333333333
        11      6     12   0.333333333333
        12      7     11   0.333333333333
        12      8      0   0.333333333333
        12      9     13   0.333333333333
#
#       front
        38     73     37   0.333333333333
        38     74      0   0.333333333333
        38     75     39   0.333333333333
        39     76     38   0.333333333333
        39     77      0   0.333333333333
        39     78     40   0.333333333333
        40     79     39   0.333333333333
        40     80      0   0.333333333333
        40     81     41   0.333333333333
END GNCDATA
