
begin options
  PRINT_INPUT
  PRINT_FLOWS
  SAVE_FLOWS
  AUXILIARY testaux
  #GHOST_NODES
end options

begin dimensions
  NEXG 36
end dimensions

  # nodem1 nodem2  ihc  cl1   cl2    hwva  testaux
begin exchangedata
#
#       left side
  1 3 2  1 1 1     1  50. 16.67 33.33   100.99
  1 3 2  1 2 1     1  50. 16.67 33.33   100.99
  1 3 2  1 3 1     1  50. 16.67 33.33   100.99
  1 4 2  1 4 1     1  50. 16.67 33.33   100.99
  1 4 2  1 5 1     1  50. 16.67 33.33   100.99
  1 4 2  1 6 1     1  50. 16.67 33.33   100.99
  1 5 2  1 7 1     1  50. 16.67 33.33   100.99
  1 5 2  1 8 1     1  50. 16.67 33.33   100.99
  1 5 2  1 9 1     1  50. 16.67 33.33   100.99
#
#       right side
  1 3 6  1 1 9     1  50. 16.67 33.33   100.99
  1 3 6  1 2 9     1  50. 16.67 33.33   100.99
  1 3 6  1 3 9     1  50. 16.67 33.33   100.99
  1 4 6  1 4 9     1  50. 16.67 33.33   100.99
  1 4 6  1 5 9     1  50. 16.67 33.33   100.99
  1 4 6  1 6 9     1  50. 16.67 33.33   100.99
  1 5 6  1 7 9     1  50. 16.67 33.33   100.99
  1 5 6  1 8 9     1  50. 16.67 33.33   100.99
  1 5 6  1 9 9     1  50. 16.67 33.33   100.99
#
#       back
  1 2 3  1 1 1     1  50. 16.67 33.33   100.99
  1 2 3  1 1 2     1  50. 16.67 33.33   100.99
  1 2 3  1 1 3     1  50. 16.67 33.33   100.99
  1 2 4  1 1 4     1  50. 16.67 33.33   100.99
  1 2 4  1 1 5     1  50. 16.67 33.33   100.99
  1 2 4  1 1 6     1  50. 16.67 33.33   100.99
  1 2 5  1 1 7     1  50. 16.67 33.33   100.99
  1 2 5  1 1 8     1  50. 16.67 33.33   100.99
  1 2 5  1 1 9     1  50. 16.67 33.33   100.99
#
#       front
  1 6 3  1 9 1     1  50. 16.67 33.33   100.99
  1 6 3  1 9 2     1  50. 16.67 33.33   100.99
  1 6 3  1 9 3     1  50. 16.67 33.33   100.99
  1 6 4  1 9 4     1  50. 16.67 33.33   100.99
  1 6 4  1 9 5     1  50. 16.67 33.33   100.99
  1 6 4  1 9 6     1  50. 16.67 33.33   100.99
  1 6 5  1 9 7     1  50. 16.67 33.33   100.99
  1 6 5  1 9 8     1  50. 16.67 33.33   100.99
  1 6 5  1 9 9     1  50. 16.67 33.33   100.99
end exchangedata

BEGIN OPTIONS
  #I2KN
  #IMPLICIT
  PRINT_INPUT
  PRINT_FLOWS
END OPTIONS

BEGIN DIMENSIONS
  NUMGNC 36
  NUMALPHAJ 1
END DIMENSIONS

BEGIN GNCDATA
#    noden  nodem nodesj          alphasj
#       left side
        16      1      9   0.333333333333
        16     10      0   0.333333333333
        16     19     23   0.333333333333
        23     28     16   0.333333333333
        23     37      0   0.333333333333
        23     46     30   0.333333333333
        30     55     23   0.333333333333
        30     64      0   0.333333333333
        30     73     37   0.333333333333
#
#       right side
        20      9     13   0.333333333333
        20     18      0   0.333333333333
        20     27     27   0.333333333333
        27     36     20   0.333333333333
        27     45      0   0.333333333333
        27     54     34   0.333333333333
        34     63     27   0.333333333333
        34     72      0   0.333333333333
        34     81     41   0.333333333333
#
#       back
        10      1      9   0.333333333333
        10      2      0   0.333333333333
        10      3     11   0.333333333333
        11      4     10   0.333333333333
        11      5      0   0.333333333333
        11      6     12   0.333333333333
        12      7     11   0.333333333333
        12      8      0   0.333333333333
        12      9     13   0.333333333333
#
#       front
        38     73     37   0.333333333333
        38     74      0   0.333333333333
        38     75     39   0.333333333333
        39     76     38   0.333333333333
        39     77      0   0.333333333333
        39     78     40   0.333333333333
        40     79     39   0.333333333333
        40     80      0   0.333333333333
        40     81     41   0.333333333333
END GNCDATA
