BEGIN OPTIONS
  #I2KN
  IMPLICIT
  PRINT_INPUT
  PRINT_FLOWS
END OPTIONS

BEGIN DIMENSIONS
  NUMGNC 24
  NUMALPHAJ 1
END DIMENSIONS

BEGIN GNCDATA
  10   1  9  0.333333333333 
  10   3 11  0.333333333333  
  11   4 10  0.333333333333
  11   6 12  0.333333333333
  12   7 11  0.333333333333
  12   9 13  0.333333333333
  16   1  9  0.333333333333
  16  19 23  0.333333333333
  20   9 13  0.333333333333
  20  27 27  0.333333333333
  23  28 16  0.333333333333
  23  46 30  0.333333333333
  27  36 20  0.333333333333
  27  54 34  0.333333333333
  30  55 23  0.333333333333
  30  73 37  0.333333333333
  34  63 27  0.333333333333
  34  81 41  0.333333333333
  38  73 37  0.333333333333
  38  75 39  0.333333333333
  39  76 38  0.333333333333
  39  78 40  0.333333333333
  40  79 39  0.333333333333
  40  81 41  0.333333333333
END GNCDATA