
begin options
  PRINT_INPUT
  PRINT_FLOWS
  SAVE_FLOWS
  NEWTON
#  AUXILIARY testaux
end options

begin dimensions
  NEXG 9
end dimensions

  # nodem1 nodem2  ifdc Icelltype Iflowtype FlenGW Fskin1 Fskin2
begin exchangedata
#
     1 5 1      2    0         1         3    33.3    1.0   1.0
     1 5 2      2    0         1         3    33.3    1.0   1.0
     1 5 3      2    0         1         3    33.3    1.0   1.0
     1 5 4      3    0         1         3    33.3    1.0   1.0
     1 5 5      3    0         1         3    33.3    1.0   1.0
     1 5 6      3    0         1         3    33.3    1.0   1.0
     1 5 7      4    0         1         3    33.3    1.0   1.0
     1 5 8      4    0         1         3    33.3    1.0   1.0
     1 5 9      4    0         1         3    33.3    1.0   1.0
end exchangedata

