begin options
  SAVE_FLOWS
  #minimum_saturated_thickness 1.d-7
  #DEBUG_MODFLOWUSG_UPSTREAM_WEIGHTED_SATURATION
end options
#
BEGIN GRIDDATA
  icelltype LAYERED
    constant 1
  k LAYERED
    constant 1.00
  K33
    constant 1.00
END GRIDDATA

