# OC package for  MODFLOW-2005, generated by Flopy.
HEAD PRINT FORMAT   0
HEAD SAVE UNIT    21
DRAWDOWN PRINT FORMAT   0
COMPACT BUDGET AUX

period 1 step 1 
  save head
  print head
  print budget

period 1 step 2 
  save head
  print head
  print budget

period 1 step 3 
  save head
  print head
  print budget

period 1 step 4 
  save head
  print head
  print budget

period 1 step 5 
  save head
  print head
  print budget

period 1 step 6 
  save head
  print head
  print budget

period 1 step 7 
  save head
  print head
  print budget

period 1 step 8 
  save head
  print head
  print budget

period 1 step 9 
  save head
  print head
  print budget

period 1 step 10 
  save head
  print head
  print budget

period 1 step 11 
  save head
  print head
  print budget

period 1 step 12 
  save head
  print head
  print budget

period 1 step 13 
  save head
  print head
  print budget

period 1 step 14 
  save head
  print head
  print budget

period 1 step 15 
  save head
  print head
  print budget

period 1 step 16 
  save head
  print head
  print budget

period 1 step 17 
  save head
  print head
  print budget

period 1 step 18 
  save head
  print head
  print budget

period 1 step 19 
  save head
  print head
  print budget

period 1 step 20 
  save head
  print head
  print budget

period 1 step 21 
  save head
  print head
  print budget

period 1 step 22 
  save head
  print head
  print budget

period 1 step 23 
  save head
  print head
  print budget

period 1 step 24 
  save head
  print head
  print budget

period 1 step 25 
  save head
  print head
  print budget

period 1 step 26 
  save head
  print head
  print budget

period 1 step 27 
  save head
  print head
  print budget

period 1 step 28 
  save head
  print head
  print budget

period 1 step 29 
  save head
  print head
  print budget

period 1 step 30 
  save head
  print head
  print budget

period 1 step 31 
  save head
  print head
  print budget

period 1 step 32 
  save head
  print head
  print budget

period 1 step 33 
  save head
  print head
  print budget

period 1 step 34 
  save head
  print head
  print budget

period 1 step 35 
  save head
  print head
  print budget

period 1 step 36 
  save head
  print head
  print budget

period 1 step 37 
  save head
  print head
  print budget

period 1 step 38 
  save head
  print head
  print budget

period 1 step 39 
  save head
  print head
  print budget

period 1 step 40 
  save head
  print head
  print budget

period 1 step 41 
  save head
  print head
  print budget

period 1 step 42 
  save head
  print head
  print budget

period 1 step 43 
  save head
  print head
  print budget

period 1 step 44 
  save head
  print head
  print budget

period 1 step 45 
  save head
  print head
  print budget

period 1 step 46 
  save head
  print head
  print budget

period 1 step 47 
  save head
  print head
  print budget

period 1 step 48 
  save head
  print head
  print budget

period 1 step 49 
  save head
  print head
  print budget

period 1 step 50 
  save head
  print head
  print budget

period 1 step 51 
  save head
  print head
  print budget

period 1 step 52 
  save head
  print head
  print budget

period 1 step 53 
  save head
  print head
  print budget

period 1 step 54 
  save head
  print head
  print budget

period 1 step 55 
  save head
  print head
  print budget

period 1 step 56 
  save head
  print head
  print budget

period 1 step 57 
  save head
  print head
  print budget

period 1 step 58 
  save head
  print head
  print budget

period 1 step 59 
  save head
  print head
  print budget

period 1 step 60 
  save head
  print head
  print budget

period 1 step 61 
  save head
  print head
  print budget

period 1 step 62 
  save head
  print head
  print budget

period 1 step 63 
  save head
  print head
  print budget

period 1 step 64 
  save head
  print head
  print budget

period 1 step 65 
  save head
  print head
  print budget

period 1 step 66 
  save head
  print head
  print budget

period 1 step 67 
  save head
  print head
  print budget

period 1 step 68 
  save head
  print head
  print budget

period 1 step 69 
  save head
  print head
  print budget

period 1 step 70 
  save head
  print head
  print budget

period 1 step 71 
  save head
  print head
  print budget

period 1 step 72 
  save head
  print head
  print budget

period 1 step 73 
  save head
  print head
  print budget

period 1 step 74 
  save head
  print head
  print budget

period 1 step 75 
  save head
  print head
  print budget

period 1 step 76 
  save head
  print head
  print budget

period 1 step 77 
  save head
  print head
  print budget

period 1 step 78 
  save head
  print head
  print budget

period 1 step 79 
  save head
  print head
  print budget

period 1 step 80 
  save head
  print head
  print budget

period 1 step 81 
  save head
  print head
  print budget

period 1 step 82 
  save head
  print head
  print budget

period 1 step 83 
  save head
  print head
  print budget

period 1 step 84 
  save head
  print head
  print budget

period 1 step 85 
  save head
  print head
  print budget

period 1 step 86 
  save head
  print head
  print budget

period 1 step 87 
  save head
  print head
  print budget

period 1 step 88 
  save head
  print head
  print budget

period 1 step 89 
  save head
  print head
  print budget

period 1 step 90 
  save head
  print head
  print budget

period 1 step 91 
  save head
  print head
  print budget

period 1 step 92 
  save head
  print head
  print budget

period 1 step 93 
  save head
  print head
  print budget

period 1 step 94 
  save head
  print head
  print budget

period 1 step 95 
  save head
  print head
  print budget

period 1 step 96 
  save head
  print head
  print budget

period 1 step 97 
  save head
  print head
  print budget

period 1 step 98 
  save head
  print head
  print budget

period 1 step 99 
  save head
  print head
  print budget

period 1 step 100 
  save head
  print head
  print budget

