# Well file for MODFLOW, generated by Flopy.
        20         0
        18         0 # stress period 0
         1         1         8   2.2000000E+03
         1         2         5   2.2000000E+03
         1         2         8   2.2000000E+03
         1         2        12   2.2000000E+03
         1         3         4   2.2000000E+03
         1         4        12   2.2000000E+03
         1         5         3   2.2000000E+03
         1         5        13   2.2000000E+03
         1         6        14   2.2000000E+03
         1         7         2   2.2000000E+03
         1        14         2   2.2000000E+03
         1        14        14   2.2000000E+03
         1        16         3   2.2000000E+03
         1        16        13   2.2000000E+03
         1        17        13   2.2000000E+03
         1        18         4   2.2000000E+03
         1        18        12   2.2000000E+03
         1        19         7   2.2000000E+03
        20         0 # stress period 1
         1         1         8   2.2000000E+03
         1         2         5   2.2000000E+03
         1         2         8   2.2000000E+03
         1         2        12   2.2000000E+03
         1         3         4   2.2000000E+03
         1         4        12   2.2000000E+03
         1         5         3   2.2000000E+03
         1         5        13   2.2000000E+03
         1         6        14   2.2000000E+03
         1         7         2   2.2000000E+03
         1        14         2   2.2000000E+03
         1        14        14   2.2000000E+03
         1        16         3   2.2000000E+03
         1        16        13   2.2000000E+03
         1        17        13   2.2000000E+03
         1        18         4   2.2000000E+03
         1        18        12   2.2000000E+03
         1        19         7   2.2000000E+03
         2         9        10  -7.2000000E+04
         4        12         7  -7.2000000E+04
        18         0 # stress period 2
         1         1         8   2.2000000E+03
         1         2         5   2.2000000E+03
         1         2         8   2.2000000E+03
         1         2        12   2.2000000E+03
         1         3         4   2.2000000E+03
         1         4        12   2.2000000E+03
         1         5         3   2.2000000E+03
         1         5        13   2.2000000E+03
         1         6        14   2.2000000E+03
         1         7         2   2.2000000E+03
         1        14         2   2.2000000E+03
         1        14        14   2.2000000E+03
         1        16         3   2.2000000E+03
         1        16        13   2.2000000E+03
         1        17        13   2.2000000E+03
         1        18         4   2.2000000E+03
         1        18        12   2.2000000E+03
         1        19         7   2.2000000E+03
