# PCG for MODFLOW, generated by Flopy.
50 30 1 0
1e-6 0.01 1.0 0 1 1 1.0 
