# Name file for MODFLOW-2005, generated by Flopy version 3.2.6.
#xul:0; yul:40000; rotation:0; proj4_str:+init=EPSG:4326; units:meters; lenuni:2; length_multiplier:1.0 ;start_datetime:1-1-1970
LIST           2 subwt_mf2005.list
DIS           11 subwt_mf2005.dis 
LPF           15 subwt_mf2005.lpf 
BAS6          13 subwt_mf2005.bas 
WEL           20 subwt_mf2005.wel 
SWT           35 subwt_mf2005.swt 
DATA(BINARY) 2051 subwt_mf2005.swtbud REPLACE
DATA(BINARY) 2052 subwt_mf2005.subsidence.hds REPLACE
DATA(BINARY) 2053 subwt_mf2005.total_comp.hds REPLACE
DATA(BINARY) 2054 subwt_mf2005.inter_comp.hds REPLACE
DATA(BINARY) 2055 subwt_mf2005.vert_disp.hds REPLACE
DATA(BINARY) 2056 subwt_mf2005.precon_stress.hds REPLACE
DATA(BINARY) 2057 subwt_mf2005.precon_stress_delta.hds REPLACE
DATA(BINARY) 2058 subwt_mf2005.geostatic_stress.hds REPLACE
DATA(BINARY) 2059 subwt_mf2005.geostatic_stress_delta.hds REPLACE
DATA(BINARY) 2060 subwt_mf2005.eff_stress.hds REPLACE
DATA(BINARY) 2061 subwt_mf2005.eff_stress_delta.hds REPLACE
DATA(BINARY) 2062 subwt_mf2005.void_ratio.hds REPLACE
DATA(BINARY) 2063 subwt_mf2005.thick.hds REPLACE
DATA(BINARY) 2064 subwt_mf2005.lay_center.hds REPLACE
OC            14 subwt_mf2005.oc 
DATA(BINARY)  51 subwt_mf2005.hds REPLACE
DATA(BINARY)  53 subwt_mf2005.cbc REPLACE
PCG           27 subwt_mf2005.pcg 
