# Output control package file for MODFLOW, generated by Flopy.
HEAD PRINT FORMAT   0
HEAD SAVE UNIT    51
DRAWDOWN PRINT FORMAT   0
COMPACT BUDGET AUX

period 1 step 1 
save head
save budget

period 2 step 1 
save head
save budget

period 2 step 2 
save head
save budget

period 2 step 3 
save head
save budget

period 2 step 4 
save head
save budget

period 2 step 5 
save head
save budget

period 2 step 6 
save head
save budget

period 2 step 7 
save head
save budget

period 2 step 8 
save head
save budget

period 2 step 9 
save head
save budget

period 2 step 10 
save head
save budget

period 2 step 11 
save head
save budget

period 2 step 12 
save head
save budget

period 2 step 13 
save head
save budget

period 2 step 14 
save head
save budget

period 2 step 15 
save head
save budget

period 2 step 16 
save head
save budget

period 2 step 17 
save head
save budget

period 2 step 18 
save head
save budget

period 2 step 19 
save head
save budget

period 2 step 20 
save head
save budget

period 2 step 21 
save head
save budget

period 2 step 22 
save head
save budget

period 2 step 23 
save head
save budget

period 2 step 24 
save head
save budget

period 2 step 25 
save head
save budget

period 2 step 26 
save head
save budget

period 2 step 27 
save head
save budget

period 2 step 28 
save head
save budget

period 2 step 29 
save head
save budget

period 2 step 30 
save head
save budget

period 2 step 31 
save head
save budget

period 2 step 32 
save head
save budget

period 2 step 33 
save head
save budget

period 2 step 34 
save head
save budget

period 2 step 35 
save head
save budget

period 2 step 36 
save head
save budget

period 2 step 37 
save head
save budget

period 2 step 38 
save head
save budget

period 2 step 39 
save head
save budget

period 2 step 40 
save head
save budget

period 2 step 41 
save head
save budget

period 2 step 42 
save head
save budget

period 2 step 43 
save head
save budget

period 2 step 44 
save head
save budget

period 2 step 45 
save head
save budget

period 2 step 46 
save head
save budget

period 2 step 47 
save head
save budget

period 2 step 48 
save head
save budget

period 2 step 49 
save head
save budget

period 2 step 50 
save head
save budget

period 2 step 51 
save head
save budget

period 2 step 52 
save head
save budget

period 2 step 53 
save head
save budget

period 2 step 54 
save head
save budget

period 2 step 55 
save head
save budget

period 2 step 56 
save head
save budget

period 2 step 57 
save head
save budget

period 2 step 58 
save head
save budget

period 2 step 59 
save head
save budget

period 2 step 60 
save head
save budget

period 3 step 1 
save head
save budget

period 3 step 2 
save head
save budget

period 3 step 3 
save head
save budget

period 3 step 4 
save head
save budget

period 3 step 5 
save head
save budget

period 3 step 6 
save head
save budget

period 3 step 7 
save head
save budget

period 3 step 8 
save head
save budget

period 3 step 9 
save head
save budget

period 3 step 10 
save head
save budget

period 3 step 11 
save head
save budget

period 3 step 12 
save head
save budget

period 3 step 13 
save head
save budget

period 3 step 14 
save head
save budget

period 3 step 15 
save head
save budget

period 3 step 16 
save head
save budget

period 3 step 17 
save head
save budget

period 3 step 18 
save head
save budget

period 3 step 19 
save head
save budget

period 3 step 20 
save head
save budget

period 3 step 21 
save head
save budget

period 3 step 22 
save head
save budget

period 3 step 23 
save head
save budget

period 3 step 24 
save head
save budget

period 3 step 25 
save head
save budget

period 3 step 26 
save head
save budget

period 3 step 27 
save head
save budget

period 3 step 28 
save head
save budget

period 3 step 29 
save head
save budget

period 3 step 30 
save head
save budget

period 3 step 31 
save head
save budget

period 3 step 32 
save head
save budget

period 3 step 33 
save head
save budget

period 3 step 34 
save head
save budget

period 3 step 35 
save head
save budget

period 3 step 36 
save head
save budget

period 3 step 37 
save head
save budget

period 3 step 38 
save head
save budget

period 3 step 39 
save head
save budget

period 3 step 40 
save head
save budget

period 3 step 41 
save head
save budget

period 3 step 42 
save head
save budget

period 3 step 43 
save head
save budget

period 3 step 44 
save head
save budget

period 3 step 45 
save head
save budget

period 3 step 46 
save head
save budget

period 3 step 47 
save head
save budget

period 3 step 48 
save head
save budget

period 3 step 49 
save head
save budget

period 3 step 50 
save head
save budget

period 3 step 51 
save head
save budget

period 3 step 52 
save head
save budget

period 3 step 53 
save head
save budget

period 3 step 54 
save head
save budget

period 3 step 55 
save head
save budget

period 3 step 56 
save head
save budget

period 3 step 57 
save head
save budget

period 3 step 58 
save head
save budget

period 3 step 59 
save head
save budget

period 3 step 60 
save head
save budget

