# LPF for MODFLOW, generated by Flopy.
         0    -1E+30         0  
         1         0         0         0
         0         0         0         0
   1.000000E+00   1.000000E+00   1.000000E+00   1.000000E+00
         0         0         0         0
         0         0         0         0
CONSTANT    4.000000E+00                           #hk layer 1                    
CONSTANT    4.000000E-01                           #vka layer 1                   
CONSTANT    1.000000E-06                           #ss layer 1                    
CONSTANT    3.000000E-01                           #sy layer 1                    
CONSTANT    4.000000E+00                           #hk layer 2                    
CONSTANT    4.000000E-01                           #vka layer 2                   
CONSTANT    1.000000E-06                           #ss layer 2                    
CONSTANT    1.000000E-02                           #hk layer 3                    
CONSTANT    1.000000E-02                           #vka layer 3                   
CONSTANT    1.000000E-06                           #ss layer 3                    
CONSTANT    4.000000E+00                           #hk layer 4                    
CONSTANT    4.000000E-01                           #vka layer 4                   
CONSTANT    1.000000E-06                           #ss layer 4                    
