# Basic package file for MODFLOW, generated by Flopy.
 FREE
INTERNAL               1    (15I10) -1 #ibound layer 1                
         0         0         0         0         0         1         1         2         1         1         0         0         0         0         0
         0         0         0         0         2         1         1         2         1         1         1         2         0         0         0
         0         0         0         2         1         1         1         1         1         1         1         1         0         0         0
         0         0         0         1         1         1         1         1         1         1         1         2         0         0         0
         0         0         2         1         1         1         1         1         1         1         1         1         2         0         0
         0         0         1         1         1         1         1         1         1         1         1         1         1         2         0
         0         2         1         1         1         1         1         1         1         1         1         1         1         1         0
         0         1         1         1         1         1         1         1         1         1         1         1         1         1         0
         1         1         1         1         1         1         1         1         1         1         1         1         1         1         1
         1         1         1         1         1         1         1         1         1         1         1         1         1         1         1
         1         1         1         1         1         1         1         1         1         1         1         1         1         1         1
         0         1         1         1         1         1         1         1         1         1         1         1         1         1         1
         0         1         1         1         1         1         1         1         1         1         1         1         1         1         0
         0         2         1         1         1         1         1         1         1         1         1         1         1         2         0
         0         0         1         1         1         1         1         1         1         1         1         1         1         0         0
         0         0         2         1         1         1         1         1         1         1         1         1         2         0         0
         0         0         0         1         1         1         1         1         1         1         1         1         2         0         0
         0         0         0         2         1         1         1         1         1         1         1         2         0         0         0
         0         0         0         0         0         0         2         1         1         1         0         0         0         0         0
         0         0         0         0         0         0         0        -1        -1         0         0         0         0         0         0
INTERNAL               1    (15I10) -1 #ibound layer 2                
         0         0         0         0         0         1         1         2         1         1         0         0         0         0         0
         0         0         0         0         2         1         1         2         1         1         1         2         0         0         0
         0         0         0         2         1         1         1         1         1         1         1         1         0         0         0
         0         0         0         1         1         1         1         1         1         1         1         2         0         0         0
         0         0         2         1         1         1         1         1         1         1         1         1         2         0         0
         0         0         1         1         1         1         1         1         1         1         1         1         1         2         0
         0         2         1         1         1         1         1         1         1         1         1         1         1         1         0
         0         1         1         1         1         1         1         1         1         1         1         1         1         1         0
         1         1         1         1         1         1         1         1         1         1         1         1         1         1         1
         1         1         1         1         1         1         1         1         1         1         1         1         1         1         1
         1         1         1         1         1         1         1         1         1         1         1         1         1         1         1
         0         1         1         1         1         1         1         1         1         1         1         1         1         1         1
         0         1         1         1         1         1         1         1         1         1         1         1         1         1         0
         0         2         1         1         1         1         1         1         1         1         1         1         1         2         0
         0         0         1         1         1         1         1         1         1         1         1         1         1         0         0
         0         0         2         1         1         1         1         1         1         1         1         1         2         0         0
         0         0         0         1         1         1         1         1         1         1         1         1         2         0         0
         0         0         0         2         1         1         1         1         1         1         1         2         0         0         0
         0         0         0         0         0         0         2         1         1         1         0         0         0         0         0
         0         0         0         0         0         0         0        -1        -1         0         0         0         0         0         0
INTERNAL               1    (15I10) -1 #ibound layer 3                
         0         0         0         0         0         1         1         2         1         1         0         0         0         0         0
         0         0         0         0         2         1         1         2         1         1         1         2         0         0         0
         0         0         0         2         1         1         1         1         1         1         1         1         0         0         0
         0         0         0         1         1         1         1         1         1         1         1         2         0         0         0
         0         0         2         1         1         1         1         1         1         1         1         1         2         0         0
         0         0         1         1         1         1         1         1         1         1         1         1         1         2         0
         0         2         1         1         1         1         1         1         1         1         1         1         1         1         0
         0         1         1         1         1         1         1         1         1         1         1         1         1         1         0
         1         1         1         1         1         1         1         1         1         1         1         1         1         1         1
         1         1         1         1         1         1         1         1         1         1         1         1         1         1         1
         1         1         1         1         1         1         1         1         1         1         1         1         1         1         1
         0         1         1         1         1         1         1         1         1         1         1         1         1         1         1
         0         1         1         1         1         1         1         1         1         1         1         1         1         1         0
         0         2         1         1         1         1         1         1         1         1         1         1         1         2         0
         0         0         1         1         1         1         1         1         1         1         1         1         1         0         0
         0         0         2         1         1         1         1         1         1         1         1         1         2         0         0
         0         0         0         1         1         1         1         1         1         1         1         1         2         0         0
         0         0         0         2         1         1         1         1         1         1         1         2         0         0         0
         0         0         0         0         0         0         2         1         1         1         0         0         0         0         0
         0         0         0         0         0         0         0        -1        -1         0         0         0         0         0         0
INTERNAL               1    (15I10) -1 #ibound layer 4                
         0         0         0         0         0         1         1         2         1         1         0         0         0         0         0
         0         0         0         0         2         1         1         2         1         1         1         2         0         0         0
         0         0         0         2         1         1         1         1         1         1         1         1         0         0         0
         0         0         0         1         1         1         1         1         1         1         1         2         0         0         0
         0         0         2         1         1         1         1         1         1         1         1         1         2         0         0
         0         0         1         1         1         1         1         1         1         1         1         1         1         2         0
         0         2         1         1         1         1         1         1         1         1         1         1         1         1         0
         0         1         1         1         1         1         1         1         1         1         1         1         1         1         0
         1         1         1         1         1         1         1         1         1         1         1         1         1         1         1
         1         1         1         1         1         1         1         1         1         1         1         1         1         1         1
         1         1         1         1         1         1         1         1         1         1         1         1         1         1         1
         0         1         1         1         1         1         1         1         1         1         1         1         1         1         1
         0         1         1         1         1         1         1         1         1         1         1         1         1         1         0
         0         2         1         1         1         1         1         1         1         1         1         1         1         2         0
         0         0         1         1         1         1         1         1         1         1         1         1         1         0         0
         0         0         2         1         1         1         1         1         1         1         1         1         2         0         0
         0         0         0         1         1         1         1         1         1         1         1         1         2         0         0
         0         0         0         2         1         1         1         1         1         1         1         2         0         0         0
         0         0         0         0         0         0         2         1         1         1         0         0         0         0         0
         0         0         0         0         0         0         0        -1        -1         0         0         0         0         0         0
        1.0e+30
CONSTANT    1.000000E+02                           #strt layer 1                  
CONSTANT    1.000000E+02                           #strt layer 2                  
CONSTANT    1.000000E+02                           #strt layer 3                  
CONSTANT    1.000000E+02                           #strt layer 4                  
