# Discretization file for MODFLOW, generated by Flopy.
         4        20        15         3         4         2
  0  0  0  0
CONSTANT    2.000000E+03                           #delr                          
CONSTANT    2.000000E+03                           #delc                          
CONSTANT    1.500000E+02                           #model_top                     
CONSTANT    5.000000E+01                           #botm layer 1                  
CONSTANT   -1.000000E+02                           #botm layer 2                  
CONSTANT   -1.500000E+02                           #botm layer 3                  
CONSTANT   -3.500000E+02                           #botm layer 4                  
      1.000000             1  1.000000  SS 
  21915.000000            60  1.000000  TR 
  21915.000000            60  1.000000  TR 
