# WEL package for  MODFLOW-2005, generated by Flopy.
         1         0
         1         0 # stress period 0
         1         1         1  -1.1830000E+02
         1         0 # stress period 1
         1         1         1   2.3660000E+01
         1         0 # stress period 2
         1         1         1  -1.1830000E+02
         1         0 # stress period 3
         1         1         1   2.3660000E+01
         1         0 # stress period 4
         1         1         1  -1.1830000E+02
         1         0 # stress period 5
         1         1         1   2.3660000E+01
         1         0 # stress period 6
         1         1         1  -1.1830000E+02
         1         0 # stress period 7
         1         1         1   2.3660000E+01
         1         0 # stress period 8
         1         1         1  -1.1830000E+02
         1         0 # stress period 9
         1         1         1   2.3660000E+01
