# Name file for MODFLOW-2005, generated by Flopy version 3.2.6.
#xul:0; yul:1000; rotation:0; proj4_str:+init=EPSG:4326; units:meters; lenuni:2; length_multiplier:1.0 ;start_datetime:1-1-1970
LIST               2  sub_ex02a.list
DIS               11  sub_ex02a.dis 
BAS6              13  sub_ex02a.bas 
LPF               15  sub_ex02a.lpf 
WEL               20  sub_ex02a.wel 
PCG               27  sub_ex02a.pcg 
OC                14  sub_ex02a.oc 
SUB               32  sub_ex02a.sub 
DATA(BINARY)      51  sub_ex02a.hds REPLACE
DATA(BINARY)      95  sub_ex02a.total_comp.hds REPLACE
