# DIS package for  MODFLOW-2005, generated by Flopy.
         1         1         1        10         4         2
  0
CONSTANT    1.000000E+03                           #delr                          
CONSTANT    1.000000E+03                           #delc                          
CONSTANT   -1.000000E+02                           #model_top                     
CONSTANT   -6.000000E+02                           #botm layer 1                  
    182.625000            10  1.050000  TR 
    182.625000            10  1.050000  TR 
    182.625000            10  1.050000  TR 
    182.625000            10  1.050000  TR 
    182.625000            10  1.050000  TR 
    182.625000            10  1.050000  TR 
    182.625000            10  1.050000  TR 
    182.625000            10  1.050000  TR 
    182.625000            10  1.050000  TR 
    182.625000            10  1.050000  TR 
