# SUB package for  MODFLOW-2005, generated by Flopy.
0 1 1 0 1 10 0.0 1.0 5 0 0
1 
CONSTANT    0.000000E+00                           #hc layer 1                    
CONSTANT    1.000000E-03                           #sfe layer 1                   
CONSTANT    1.000000E-01                           #sfv layer 1                   
CONSTANT    0.000000E+00                           #com layer 1                   
12 0 12 95 12 0 12 0 12 0 12 0   #dataset 15
1 11 1 11 1 0 1 1 1 0 1 0 1 0 1 0 1   #dataset 16 isuboc 1
