# SUB package for  MODFLOW-2005, generated by Flopy.
0 1 0 1 1 10 0.0 1.0 5 0 0
1 
CONSTANT    1.000000E+00                           #rnb layer 1                   
       1.08e-05           5e-05           0.005    #material zone 1 data
CONSTANT    0.000000E+00                           #dstart layer 1                
CONSTANT    0.000000E+00                           #dhc layer 1                   
CONSTANT    0.000000E+00                           #dcom layer 1                  
CONSTANT    2.000000E+01                           #dz layer 1                    
CONSTANT          1                                #nz layer 1                    
12 0 12 95 12 0 12 0 12 0 12 0   #dataset 15
1 11 1 11 1 0 1 1 1 0 1 0 1 0 1 0 1   #dataset 16 isuboc 1
