# LPF package for  MODFLOW-2005, generated by Flopy.
         0    -1E+30         0  STORAGECOEFFICIENT 
         0
         0
   1.000000E+00
         0
         0
CONSTANT    1.000000E+06                           #hk layer 1                    
CONSTANT    1.000000E+06                           #vka layer 1                   
CONSTANT    1.140000E-03                           #storage layer 1               
