begin options
  denseref 1000.
  drhodc 0.7142
end options

