#option block.  Note -- no comments allowed on auxiliary line
begin options
  PRINT_INPUT
  PRINT_FLOWS
  SAVE_FLOWS
end options

begin dimensions
  MAXBOUND 10
end dimensions

#        k         i         j      flux     var1 var2 var3
begin period 1
         1         1         1 0.5702400
         2         1         1 0.5702400
         3         1         1 0.5702400
         4         1         1 0.5702400
         5         1         1 0.5702400
         6         1         1 0.5702400
         7         1         1 0.5702400
         8         1         1 0.5702400
         9         1         1 0.5702400
        10         1         1 0.5702400
end period
