BEGIN OPTIONS
END OPTIONS

BEGIN PACKAGES
  DIS6           flow.dis
  IC6           flow.ic
  CHD6           flow.chd
  NPF6           flow.npf
  BUY8           flow.buy
  WEL6           flow.wel
  OC6            flow.oc
END PACKAGES

