# Basic package file for MODFLOW-USG, generated by Flopy.
begin options
end options

BEGIN GRIDDATA
strt
  INTERNAL  FACTOR  1 IPRN
  1 1 1 1 1 1 1 1 1 1 1 1 1 1 1 1 1 1 1 1 1.00125
  1 1 1 1 1 1 1 1 1 1 1 1 1 1 1 1 1 1 1 1 1.00375
  1 1 1 1 1 1 1 1 1 1 1 1 1 1 1 1 1 1 1 1 1.00625
  1 1 1 1 1 1 1 1 1 1 1 1 1 1 1 1 1 1 1 1 1.00875
  1 1 1 1 1 1 1 1 1 1 1 1 1 1 1 1 1 1 1 1 1.01125
  1 1 1 1 1 1 1 1 1 1 1 1 1 1 1 1 1 1 1 1 1.01375
  1 1 1 1 1 1 1 1 1 1 1 1 1 1 1 1 1 1 1 1 1.01625
  1 1 1 1 1 1 1 1 1 1 1 1 1 1 1 1 1 1 1 1 1.01875
  1 1 1 1 1 1 1 1 1 1 1 1 1 1 1 1 1 1 1 1 1.02125
  1 1 1 1 1 1 1 1 1 1 1 1 1 1 1 1 1 1 1 1 1.02375
END GRIDDATA

