
begin options
  
end options

#Henry classic case 1: diffusion coefficient = 1.6293
#Henry classic case 2: diffusion coefficient = 0.57024

BEGIN DSPDATA
  DIFFUSION
    CONSTANT 0.57024
END DSPDATA

#begin period 1
#  diffusion
#    constant 0.57024
#end period
