
begin options
  #CENTRAL_IN_SPACE
end options
