begin options
  PRINT_INPUT
  PRINT_FLOWS
  SAVE_FLOWS
end options

begin dimensions
  MAXBOUND 10
end dimensions

begin period 1
  1 1 21 35.0 35.0
  2 1 21 35.0 35.0
  3 1 21 35.0 35.0
  4 1 21 35.0 35.0
  5 1 21 35.0 35.0
  6 1 21 35.0 35.0
  7 1 21 35.0 35.0
  8 1 21 35.0 35.0
  9 1 21 35.0 35.0
 10 1 21 35.0 35.0
end period
