BEGIN OPTIONS
END OPTIONS

BEGIN PACKAGES
  DIS           transport.dis
  BAS           transport.bas
  #
  # Turn on CNC to use constant concentrations for right boundary
  CNC           transport.cnc
  ADV           transport.adv
  DSP           transport.dsp
  STO           transport.sto
  OC            transport.oc
END PACKAGES

