# OC6 input file, prepared by MF5to6 on 11/15/2017 at 15:19:14.

BEGIN Options
  HEAD FILEOUT  mf6.hds
  HEAD PRINT_FORMAT  COLUMNS 10  WIDTH 11  DIGITS 4  GENERAL             
END Options

BEGIN PERIOD 1
  PRINT BUDGET ALL
  SAVE HEAD ALL
  PRINT HEAD ALL
END PERIOD
