# TDIS6 input file, prepared by MF5to6 on 11/15/2017 at 15:19:14.

BEGIN Options
  TIME_UNITS DAYS
END Options

BEGIN Dimensions
  NPER 10
END Dimensions

BEGIN PERIODDATA
    182.62500              10    1.0500000      Items: PERLEN NSTP TSMULT
    182.62500              10    1.0500000      Items: PERLEN NSTP TSMULT
    182.62500              10    1.0500000      Items: PERLEN NSTP TSMULT
    182.62500              10    1.0500000      Items: PERLEN NSTP TSMULT
    182.62500              10    1.0500000      Items: PERLEN NSTP TSMULT
    182.62500              10    1.0500000      Items: PERLEN NSTP TSMULT
    182.62500              10    1.0500000      Items: PERLEN NSTP TSMULT
    182.62500              10    1.0500000      Items: PERLEN NSTP TSMULT
    182.62500              10    1.0500000      Items: PERLEN NSTP TSMULT
    182.62500              10    1.0500000      Items: PERLEN NSTP TSMULT
END PERIODDATA
