# NPF6 input file, prepared by MF5to6 on 11/15/2017 at 15:19:14.

BEGIN Options
  PERCHED
  VARIABLECV  DEWATERED
END Options

BEGIN GRIDDATA
  Icelltype LAYERED
    CONSTANT  0
  K  LAYERED
    CONSTANT    1000000.00    
END GRIDDATA
