# WEL6 input file, prepared by MF5to6 on 11/15/2017 at 15:19:14.

BEGIN Options
  PRINT_INPUT
  PRINT_FLOWS
END Options

BEGIN Dimensions
  MAXBOUND  1
END Dimensions

BEGIN PERIOD 1
  1  1  1   -118.30000
END PERIOD

BEGIN PERIOD 2
  1  1  1    23.660000
END PERIOD

BEGIN PERIOD 3
  1  1  1   -118.30000
END PERIOD

BEGIN PERIOD 4
  1  1  1    23.660000
END PERIOD

BEGIN PERIOD 5
  1  1  1   -118.30000
END PERIOD

BEGIN PERIOD 6
  1  1  1    23.660000
END PERIOD

BEGIN PERIOD 7
  1  1  1   -118.30000
END PERIOD

BEGIN PERIOD 8
  1  1  1    23.660000
END PERIOD

BEGIN PERIOD 9
  1  1  1   -118.30000
END PERIOD

BEGIN PERIOD 10
  1  1  1    23.660000
END PERIOD
