# STO6 input file, prepared by MF5to6 on 11/15/2017 at 15:19:14.

BEGIN Options
  STORAGECOEFFICIENT
  DEV_OLDSTORAGEFORMULATION
END Options

BEGIN GRIDDATA
  ICONVERT LAYERED
    CONSTANT  0
  SS LAYERED
    CONSTANT   0.11400000E-02
  SY LAYERED
    CONSTANT    0.0000000    
END GRIDDATA
