NAC test problem from Melissa Hill. 2 layers, 545 rows, 670 columns. 1 stready-state period and 20 transient stress-periods (21 total stress periods). Originally a MODFLOW-NWT test problem. 
