BEGIN OPTIONS
END OPTIONS

BEGIN PACKAGES
  DISU6         flow.disu
  CHD6          flow.chd
  IC6           flow.ic
  NPF6          flow.npf
  BUY8          flow.buy
  WEL6          flow.wel
  OC6           flow.oc
END PACKAGES

