BEGIN OPTIONS
  HEAD FILEOUT flow.output.hds
  BUDGET FILEOUT flow.output.cbc
END OPTIONS

BEGIN PERIOD 1
  PRINT BUDGET ALL
  SAVE BUDGET ALL
  SAVE HEAD ALL
END PERIOD
