begin options
  denseref 1000.
  drhodc 0.7142
  read_elevation
end options

begin period 1
  elev
    open/close 'arrays/elev.dat' 1.0 (free)
end period
