# Basic package file for MODFLOW-USG, generated by Flopy.
begin options
  cinact -1.e30
end options

#  open/close arrays/icbund.dat 1 (free)


begin basdata
strt
  constant 35.
end basdata
