
begin options
  PRINT_INPUT
  PRINT_FLOWS
  SAVE_FLOWS
  NEWTON
#  AUXILIARY testaux
end options

begin dimensions
  NEXG 4
end dimensions

  # nodem1 nodem2  ifdc Icelltype Iflowtype FlenGW Fskin1 Fskin2
begin exchangedata
#
        23      1    0         1         3    50.0    1.0   1.0
        24      2    0         1         3   100.0    1.0   1.0
        25      3    0         1         3   100.0    1.0   1.0
        26      4    0         1         3   100.0    1.0   1.0
end exchangedata

