begin options
  save_FLOWS
  PERCHED
end options
#
BEGIN GRIDDATA
  icelltype
    constant 1
  K
    constant 1.
  K33
    constant 1.
END GRIDDATA
